<?xml version="1.0" encoding="UTF-8"?>

<!-- generated on 2026-04-17T14:25:47.492295-04:00 by Eclipse SUMO netedit 1.26.0
<neteditConfiguration xmlns:xsi="http://www.w3.org/2001/XMLSchema-instance" xsi:noNamespaceSchemaLocation="http://sumo.dlr.de/xsd/neteditConfiguration.xsd">

    <input>
        <sumo-net-file value="C:\Users\samue_yffy\Desktop\SUMO\01_Red_Y_Demanda\costanera.net.xml"/>
    </input>

    <output>
        <output-file value="C:\Users\samue_yffy\Desktop\SUMO\01_Red_Y_Demanda\costanera.net.xml"/>
    </output>

    <processing>
        <geometry.min-radius.fix.railways value="false"/>
        <geometry.avoid-overlap value="false"/>
        <geometry.max-grade.fix value="false"/>
        <offset.disable-normalization value="true"/>
        <lefthand value="0"/>
    </processing>

    <junctions>
        <no-turnarounds value="true"/>
        <junctions.corner-detail value="5"/>
        <junctions.limit-turn-speed value="5.50"/>
        <rectangular-lane-cut value="0"/>
    </junctions>

    <pedestrian>
        <walkingareas value="0"/>
    </pedestrian>

</neteditConfiguration>
-->

<net version="1.20" junctionCornerDetail="5" limitTurnSpeed="5.50" avoidOverlap="0" xmlns:xsi="http://www.w3.org/2001/XMLSchema-instance" xsi:noNamespaceSchemaLocation="http://sumo.dlr.de/xsd/net_file.xsd">

    <location netOffset="-313822.09,-1122210.41" convBoundary="279.82,717.98,1724.81,3759.87" origBoundary="-64.699357,10.147604,-64.682411,10.181543" projParameter="+proj=utm +zone=20 +ellps=WGS84 +datum=WGS84 +units=m +no_defs"/>

    <type id="highway.footway" priority="1" numLanes="1" speed="2.78" allow="pedestrian" oneway="1" width="2.00"/>
    <type id="highway.residential" priority="3" numLanes="1" speed="13.89" disallow="tram rail_urban rail rail_electric rail_fast ship container cable_car subway aircraft wheelchair scooter drone" oneway="0"/>
    <type id="highway.service" priority="1" numLanes="1" speed="5.56" allow="pedestrian delivery bicycle" oneway="0"/>
    <type id="highway.tertiary" priority="10" numLanes="1" speed="22.22" disallow="tram rail_urban rail rail_electric rail_fast ship container cable_car subway aircraft wheelchair scooter drone" oneway="0"/>
    <type id="highway.tertiary_link" priority="5" numLanes="1" speed="22.22" disallow="tram rail_urban rail rail_electric rail_fast ship container cable_car subway aircraft wheelchair scooter drone" oneway="0"/>

    <edge id=":10109961524_0" function="internal">
        <lane id=":10109961524_0_0" index="0" allow="pedestrian delivery bicycle" speed="3.65" length="4.67" shape="1157.64,741.37 1158.78,740.48 1159.66,740.35 1160.30,740.98 1160.68,742.37"/>
    </edge>
    <edge id=":10109961525_0" function="internal">
        <lane id=":10109961525_0_0" index="0" allow="pedestrian delivery bicycle" speed="5.56" length="9.40" shape="1126.44,855.43 1117.52,852.45"/>
    </edge>
    <edge id=":10109961525_1" function="internal">
        <lane id=":10109961525_1_0" index="0" allow="pedestrian delivery bicycle" speed="5.56" length="10.30" shape="1126.44,855.43 1123.90,854.16 1122.41,852.38 1121.96,850.11 1122.55,847.34"/>
    </edge>
    <edge id=":10109961525_2" function="internal">
        <lane id=":10109961525_2_0" index="0" allow="pedestrian delivery bicycle" speed="3.65" length="4.67" shape="1126.44,855.43 1125.55,854.29 1125.43,853.40 1126.06,852.77 1127.45,852.39"/>
    </edge>
    <edge id=":10109961525_3" function="internal">
        <lane id=":10109961525_3_0" index="0" allow="pedestrian delivery bicycle" speed="5.01" length="5.03" shape="1125.55,848.44 1125.27,849.80 1125.49,850.91 1126.22,851.77 1127.45,852.39"/>
    </edge>
    <edge id=":10109961525_4" function="internal">
        <lane id=":10109961525_4_0" index="0" allow="pedestrian delivery bicycle" speed="5.56" length="10.17" shape="1125.55,848.44 1124.23,850.93 1122.45,852.42 1120.22,852.93 1117.52,852.45"/>
    </edge>
    <edge id=":10109961525_5" function="internal">
        <lane id=":10109961525_5_0" index="0" allow="pedestrian delivery bicycle" speed="3.65" length="4.67" shape="1125.55,848.44 1124.39,849.29 1123.50,849.39 1122.89,848.74 1122.55,847.34"/>
    </edge>
    <edge id=":10109961525_6" function="internal">
        <lane id=":10109961525_6_0" index="0" allow="pedestrian delivery bicycle" speed="5.14" length="5.12" shape="1118.54,849.41 1119.87,849.64 1120.99,849.38 1121.88,848.61 1122.55,847.34"/>
    </edge>
    <edge id=":10109961525_7" function="internal">
        <lane id=":10109961525_7_0" index="0" allow="pedestrian delivery bicycle" speed="5.56" length="9.40" shape="1118.54,849.41 1127.45,852.39"/>
    </edge>
    <edge id=":10109961525_8" function="internal">
        <lane id=":10109961525_8_0" index="0" allow="pedestrian delivery bicycle" speed="3.65" length="4.67" shape="1118.54,849.41 1119.42,850.55 1119.55,851.44 1118.91,852.07 1117.52,852.45"/>
    </edge>
    <edge id=":10110015590_0" function="internal">
        <lane id=":10110015590_0_0" index="0" allow="pedestrian delivery bicycle" speed="4.97" length="5.08" shape="1172.05,983.95 1170.77,983.37 1169.63,983.36 1168.64,983.92 1167.80,985.04"/>
    </edge>
    <edge id=":10110015590_1" function="internal">
        <lane id=":10110015590_1_0" index="0" allow="pedestrian delivery bicycle" speed="7.03" length="10.19" shape="1172.05,983.95 1169.86,982.12 1168.71,980.05 1168.60,977.76 1169.52,975.25"/>
    </edge>
    <edge id=":10110015590_2" function="internal">
        <lane id=":10110015590_2_0" index="0" allow="pedestrian delivery bicycle" speed="3.65" length="4.67" shape="1172.05,983.95 1171.47,982.63 1171.56,981.74 1172.33,981.28 1173.77,981.26"/>
    </edge>
    <edge id=":10110015590_3" function="internal">
        <lane id=":10110015590_3_0" index="0" allow="pedestrian delivery bicycle" speed="5.26" length="5.27" shape="1172.33,976.79 1171.88,978.05 1171.97,979.22 1172.60,980.29 1173.77,981.26"/>
    </edge>
    <edge id=":10110015590_4" function="internal">
        <lane id=":10110015590_4_0" index="0" disallow="tram rail_urban rail rail_electric rail_fast ship container cable_car subway aircraft wheelchair scooter drone" speed="13.89" length="9.42" shape="1172.33,976.79 1167.80,985.04"/>
    </edge>
    <edge id=":10110015590_5" function="internal">
        <lane id=":10110015590_5_0" index="0" disallow="tram rail_urban rail rail_electric rail_fast ship container cable_car subway aircraft wheelchair scooter drone" speed="13.89" length="9.42" shape="1164.99,983.51 1169.52,975.25"/>
    </edge>
    <edge id=":10110015590_6" function="internal">
        <lane id=":10110015590_6_0" index="0" allow="pedestrian delivery bicycle" speed="6.81" length="3.33" shape="1164.99,983.51 1166.74,981.18 1167.11,980.98"/>
    </edge>
    <edge id=":10110015590_7" function="internal">
        <lane id=":10110015590_7_0" index="0" allow="pedestrian delivery bicycle" speed="6.81" length="7.17" shape="1167.11,980.98 1168.78,980.04 1171.12,980.06 1173.77,981.26"/>
    </edge>
    <edge id=":10110015592_0" function="internal">
        <lane id=":10110015592_0_0" index="0" allow="pedestrian delivery bicycle" speed="3.65" length="4.67" shape="1195.42,1014.15 1194.24,1014.99 1193.35,1015.08 1192.75,1014.42 1192.42,1013.01"/>
    </edge>
    <edge id=":10126615291_0" function="internal">
        <lane id=":10126615291_0_0" index="0" disallow="tram rail_urban rail rail_electric rail_fast ship container cable_car subway aircraft wheelchair scooter drone" speed="7.21" length="9.91" shape="1080.43,1222.41 1078.16,1221.51 1075.94,1221.56 1073.79,1222.57 1071.69,1224.54"/>
    </edge>
    <edge id=":10126615291_1" function="internal">
        <lane id=":10126615291_1_0" index="0" disallow="tram rail_urban rail rail_electric rail_fast ship container cable_car subway aircraft wheelchair scooter drone" speed="9.72" length="14.49" shape="1080.43,1222.41 1068.01,1214.95"/>
    </edge>
    <edge id=":10126615291_2" function="internal">
        <lane id=":10126615291_2_0" index="0" disallow="tram rail_urban rail rail_electric rail_fast ship container cable_car subway aircraft wheelchair scooter drone" speed="9.72" length="14.49" shape="1069.65,1212.21 1082.07,1219.67"/>
    </edge>
    <edge id=":10126615291_3" function="internal">
        <lane id=":10126615291_3_0" index="0" disallow="tram rail_urban rail rail_electric rail_fast ship container cable_car subway aircraft wheelchair scooter drone" speed="7.74" length="14.85" shape="1069.65,1212.21 1072.88,1214.84 1074.30,1217.78 1073.90,1221.01 1071.69,1224.54"/>
    </edge>
    <edge id=":10126615291_4" function="internal">
        <lane id=":10126615291_4_0" index="0" disallow="tram rail_urban rail rail_electric rail_fast ship container cable_car subway aircraft wheelchair scooter drone" speed="6.18" length="9.05" shape="1069.25,1222.47 1070.60,1220.32 1070.84,1218.35 1069.98,1216.56 1068.01,1214.95"/>
    </edge>
    <edge id=":10126615291_5" function="internal">
        <lane id=":10126615291_5_0" index="0" disallow="tram rail_urban rail rail_electric rail_fast ship container cable_car subway aircraft wheelchair scooter drone" speed="8.59" length="2.67" shape="1069.25,1222.47 1071.21,1220.66"/>
    </edge>
    <edge id=":10126615291_6" function="internal">
        <lane id=":10126615291_6_0" index="0" disallow="tram rail_urban rail rail_electric rail_fast ship container cable_car subway aircraft wheelchair scooter drone" speed="8.59" length="11.82" shape="1071.21,1220.66 1072.26,1219.68 1075.40,1218.29 1078.67,1218.28 1082.07,1219.67"/>
    </edge>
    <edge id=":10126615292_0" function="internal">
        <lane id=":10126615292_0_0" index="0" disallow="tram rail_urban rail rail_electric rail_fast ship container cable_car subway aircraft wheelchair scooter drone" speed="9.72" length="23.74" shape="1059.41,1256.36 1055.05,1253.82 1050.20,1253.90 1044.87,1256.60 1039.05,1261.90"/>
    </edge>
    <edge id=":10126615292_1" function="internal">
        <lane id=":10126615292_1_0" index="0" disallow="tram rail_urban rail rail_electric rail_fast ship container cable_car subway aircraft wheelchair scooter drone" speed="9.72" length="31.41" shape="1059.41,1256.36 1054.41,1252.53 1046.65,1247.23 1038.77,1242.12 1033.38,1238.82"/>
    </edge>
    <edge id=":10126615292_2" function="internal">
        <lane id=":10126615292_2_0" index="0" disallow="tram rail_urban rail rail_electric rail_fast ship container cable_car subway aircraft wheelchair scooter drone" speed="9.72" length="27.89" shape="1059.41,1256.36 1055.58,1251.12 1054.66,1245.25 1056.64,1238.73 1061.52,1231.59"/>
    </edge>
    <edge id=":10126615292_3" function="internal">
        <lane id=":10126615292_3_0" index="0" disallow="tram rail_urban rail rail_electric rail_fast ship container cable_car subway aircraft wheelchair scooter drone" speed="9.72" length="22.65" shape="1063.96,1233.65 1059.79,1239.64 1057.96,1244.98 1058.47,1249.69 1061.32,1253.76"/>
    </edge>
    <edge id=":10126615292_4" function="internal">
        <lane id=":10126615292_4_0" index="0" disallow="tram rail_urban rail rail_electric rail_fast ship container cable_car subway aircraft wheelchair scooter drone" speed="13.89" length="37.67" shape="1063.96,1233.65 1039.05,1261.90"/>
    </edge>
    <edge id=":10126615292_5" function="internal">
        <lane id=":10126615292_5_0" index="0" disallow="tram rail_urban rail rail_electric rail_fast ship container cable_car subway aircraft wheelchair scooter drone" speed="13.10" length="5.94" shape="1063.96,1233.65 1059.53,1237.61"/>
    </edge>
    <edge id=":10126615292_12" function="internal">
        <lane id=":10126615292_12_0" index="0" disallow="tram rail_urban rail rail_electric rail_fast ship container cable_car subway aircraft wheelchair scooter drone" speed="13.10" length="28.15" shape="1059.53,1237.61 1057.22,1239.67 1049.88,1242.54 1041.93,1242.25 1033.38,1238.82"/>
    </edge>
    <edge id=":10126615292_6" function="internal">
        <lane id=":10126615292_6_0" index="0" disallow="tram rail_urban rail rail_electric rail_fast ship container cable_car subway aircraft wheelchair scooter drone" speed="12.23" length="29.60" shape="1034.96,1236.03 1042.39,1239.03 1049.30,1239.28 1055.67,1236.80 1061.52,1231.59"/>
    </edge>
    <edge id=":10126615292_7" function="internal">
        <lane id=":10126615292_7_0" index="0" disallow="tram rail_urban rail rail_electric rail_fast ship container cable_car subway aircraft wheelchair scooter drone" speed="9.72" length="31.79" shape="1034.96,1236.03 1040.40,1239.36 1048.40,1244.54 1056.27,1249.90 1061.32,1253.76"/>
    </edge>
    <edge id=":10126615292_8" function="internal">
        <lane id=":10126615292_8_0" index="0" disallow="tram rail_urban rail rail_electric rail_fast ship container cable_car subway aircraft wheelchair scooter drone" speed="10.92" length="32.05" shape="1034.96,1236.03 1042.32,1241.59 1045.44,1247.63 1044.34,1254.34 1039.05,1261.90"/>
    </edge>
    <edge id=":10126615292_9" function="internal">
        <lane id=":10126615292_9_0" index="0" disallow="tram rail_urban rail rail_electric rail_fast ship container cable_car subway aircraft wheelchair scooter drone" speed="9.81" length="25.66" shape="1036.69,1259.74 1040.79,1253.73 1041.61,1248.24 1039.14,1243.27 1033.38,1238.82"/>
    </edge>
    <edge id=":10126615292_10" function="internal">
        <lane id=":10126615292_10_0" index="0" disallow="tram rail_urban rail rail_electric rail_fast ship container cable_car subway aircraft wheelchair scooter drone" speed="13.89" length="37.54" shape="1036.69,1259.74 1061.52,1231.59"/>
    </edge>
    <edge id=":10126615292_11" function="internal">
        <lane id=":10126615292_11_0" index="0" disallow="tram rail_urban rail rail_electric rail_fast ship container cable_car subway aircraft wheelchair scooter drone" speed="9.72" length="6.19" shape="1036.69,1259.74 1041.29,1255.60"/>
    </edge>
    <edge id=":10126615292_13" function="internal">
        <lane id=":10126615292_13_0" index="0" disallow="tram rail_urban rail rail_electric rail_fast ship container cable_car subway aircraft wheelchair scooter drone" speed="9.72" length="22.42" shape="1041.29,1255.60 1043.59,1253.51 1050.00,1250.44 1055.91,1250.53 1061.32,1253.76"/>
    </edge>
    <edge id=":10126615293_0" function="internal">
        <lane id=":10126615293_0_0" index="0" disallow="tram rail_urban rail rail_electric rail_fast ship container cable_car subway aircraft wheelchair scooter drone" speed="9.72" length="11.87" shape="1015.68,1292.26 1006.50,1284.74"/>
    </edge>
    <edge id=":10126615293_1" function="internal">
        <lane id=":10126615293_1_0" index="0" disallow="tram rail_urban rail rail_electric rail_fast ship container cable_car subway aircraft wheelchair scooter drone" speed="7.36" length="12.44" shape="1015.68,1292.26 1013.84,1290.06 1013.41,1287.53 1014.39,1284.67 1016.77,1281.47"/>
    </edge>
    <edge id=":10126615293_2" function="internal">
        <lane id=":10126615293_2_0" index="0" disallow="tram rail_urban rail rail_electric rail_fast ship container cable_car subway aircraft wheelchair scooter drone" speed="3.65" length="4.67" shape="1015.68,1292.26 1015.24,1290.89 1015.43,1290.01 1016.24,1289.64 1017.68,1289.77"/>
    </edge>
    <edge id=":10126615293_3" function="internal">
        <lane id=":10126615293_3_0" index="0" disallow="tram rail_urban rail rail_electric rail_fast ship container cable_car subway aircraft wheelchair scooter drone" speed="5.72" length="7.09" shape="1019.13,1283.63 1017.59,1285.59 1016.84,1287.27 1016.87,1288.66 1017.68,1289.77"/>
    </edge>
    <edge id=":10126615293_4" function="internal">
        <lane id=":10126615293_4_0" index="0" disallow="tram rail_urban rail rail_electric rail_fast ship container cable_car subway aircraft wheelchair scooter drone" speed="8.18" length="14.31" shape="1019.13,1283.63 1016.08,1286.17 1012.95,1287.21 1009.76,1286.73 1006.50,1284.74"/>
    </edge>
    <edge id=":10126615293_5" function="internal">
        <lane id=":10126615293_5_0" index="0" disallow="tram rail_urban rail rail_electric rail_fast ship container cable_car subway aircraft wheelchair scooter drone" speed="3.65" length="1.44" shape="1019.13,1283.63 1017.73,1283.98"/>
    </edge>
    <edge id=":10126615293_9" function="internal">
        <lane id=":10126615293_9_0" index="0" disallow="tram rail_urban rail rail_electric rail_fast ship container cable_car subway aircraft wheelchair scooter drone" speed="3.65" length="3.23" shape="1017.73,1283.98 1016.87,1283.73 1016.55,1282.89 1016.77,1281.47"/>
    </edge>
    <edge id=":10126615293_6" function="internal">
        <lane id=":10126615293_6_0" index="0" disallow="tram rail_urban rail rail_electric rail_fast ship container cable_car subway aircraft wheelchair scooter drone" speed="6.72" length="9.33" shape="1008.54,1282.28 1010.65,1283.56 1012.72,1283.85 1014.77,1283.15 1016.77,1281.47"/>
    </edge>
    <edge id=":10126615293_7" function="internal">
        <lane id=":10126615293_7_0" index="0" disallow="tram rail_urban rail rail_electric rail_fast ship container cable_car subway aircraft wheelchair scooter drone" speed="9.72" length="11.81" shape="1008.54,1282.28 1017.68,1289.77"/>
    </edge>
    <edge id=":10126615293_8" function="internal">
        <lane id=":10126615293_8_0" index="0" disallow="tram rail_urban rail rail_electric rail_fast ship container cable_car subway aircraft wheelchair scooter drone" speed="3.65" length="1.30" shape="1008.54,1282.28 1008.91,1283.53"/>
    </edge>
    <edge id=":10126615293_10" function="internal">
        <lane id=":10126615293_10_0" index="0" disallow="tram rail_urban rail rail_electric rail_fast ship container cable_car subway aircraft wheelchair scooter drone" speed="3.65" length="3.37" shape="1008.91,1283.53 1008.95,1283.66 1008.75,1284.54 1007.93,1284.89 1006.50,1284.74"/>
    </edge>
    <edge id=":11124200290_0" function="internal">
        <lane id=":11124200290_0_0" index="0" allow="pedestrian delivery bicycle" speed="5.12" length="5.30" shape="887.60,2629.41 887.36,2628.02 886.69,2627.07 885.60,2626.55 884.09,2626.48"/>
    </edge>
    <edge id=":11124200290_1" function="internal">
        <lane id=":11124200290_1_0" index="0" disallow="tram rail_urban rail rail_electric rail_fast ship container cable_car subway aircraft wheelchair scooter drone" speed="16.67" length="9.97" width="3.70" shape="887.60,2629.41 887.42,2619.44"/>
        <lane id=":11124200290_1_1" index="1" disallow="tram rail_urban rail rail_electric rail_fast ship container cable_car subway aircraft wheelchair scooter drone" speed="11.11" length="9.97" width="3.70" shape="891.30,2629.35 891.12,2619.38"/>
    </edge>
    <edge id=":11124200290_3" function="internal">
        <lane id=":11124200290_3_0" index="0" allow="pedestrian delivery bicycle" speed="6.54" length="8.42" shape="891.30,2629.35 891.45,2626.39 892.03,2624.23 893.03,2622.87 894.46,2622.30"/>
    </edge>
    <edge id=":11124200290_4" function="internal">
        <lane id=":11124200290_4_0" index="0" allow="pedestrian delivery bicycle" speed="5.56" length="10.73" shape="894.77,2625.49 884.09,2626.48"/>
    </edge>
    <edge id=":11124200290_5" function="internal">
        <lane id=":11124200290_5_0" index="0" allow="pedestrian delivery bicycle" speed="6.02" length="8.05" width="3.70" shape="894.77,2625.49 893.22,2625.24 892.09,2624.14 891.39,2622.18 891.12,2619.38"/>
    </edge>
    <edge id=":11124200290_6" function="internal">
        <lane id=":11124200290_6_0" index="0" allow="pedestrian delivery bicycle" speed="5.54" length="5.93" width="3.70" shape="883.81,2623.30 885.41,2622.94 886.55,2622.17 887.22,2621.01 887.42,2619.44"/>
    </edge>
    <edge id=":11124200290_7" function="internal">
        <lane id=":11124200290_7_0" index="0" allow="pedestrian delivery bicycle" speed="5.56" length="10.69" shape="883.81,2623.30 894.46,2622.30"/>
    </edge>
    <edge id=":11135660830_0" function="internal">
        <lane id=":11135660830_0_0" index="0" allow="pedestrian delivery bicycle" speed="3.65" length="4.67" shape="873.77,2176.17 872.56,2175.38 872.15,2174.59 872.54,2173.78 873.73,2172.97"/>
    </edge>
    <edge id=":11135660841_0" function="internal">
        <lane id=":11135660841_0_0" index="0" allow="pedestrian delivery bicycle" speed="4.83" length="5.78" width="3.70" shape="803.65,2196.52 801.96,2196.81 800.97,2197.53 800.68,2198.69 801.10,2200.28"/>
    </edge>
    <edge id=":11135660841_1" function="internal">
        <lane id=":11135660841_1_0" index="0" allow="pedestrian delivery bicycle" speed="3.65" length="4.67" shape="803.65,2196.52 802.43,2195.76 802.00,2194.98 802.37,2194.17 803.54,2193.32"/>
    </edge>
    <edge id=":11135660841_2" function="internal">
        <lane id=":11135660841_2_0" index="0" allow="pedestrian delivery bicycle" speed="6.69" length="6.97" shape="797.31,2191.15 798.05,2192.17 799.33,2192.88 801.16,2193.26 803.54,2193.32"/>
    </edge>
    <edge id=":11135660841_3" function="internal">
        <lane id=":11135660841_3_0" index="0" disallow="tram rail_urban rail rail_electric rail_fast ship container cable_car subway aircraft wheelchair scooter drone" speed="11.11" length="9.92" width="3.70" shape="797.31,2191.15 801.10,2200.28"/>
        <lane id=":11135660841_3_1" index="1" disallow="tram rail_urban rail rail_electric rail_fast ship container cable_car subway aircraft wheelchair scooter drone" speed="16.67" length="9.92" width="3.70" shape="793.87,2192.52 797.69,2201.73"/>
    </edge>
    <edge id=":11332033564_0" function="internal">
        <lane id=":11332033564_0_0" index="0" allow="pedestrian delivery bicycle" speed="3.65" length="4.67" shape="991.89,3034.79 993.33,3034.84 994.09,3035.31 994.17,3036.20 993.57,3037.51"/>
    </edge>
    <edge id=":11332033566_0" function="internal">
        <lane id=":11332033566_0_0" index="0" allow="pedestrian delivery bicycle" speed="3.65" length="4.67" shape="965.36,3007.38 966.80,3007.36 967.59,3007.79 967.71,3008.68 967.18,3010.02"/>
    </edge>
    <edge id=":11332146269_0" function="internal">
        <lane id=":11332146269_0_0" index="0" allow="pedestrian delivery bicycle" speed="5.56" length="9.43" shape="962.50,3035.66 960.22,3037.33 958.70,3038.70 957.05,3039.63 954.40,3039.96"/>
    </edge>
    <edge id=":11332146269_1" function="internal">
        <lane id=":11332146269_1_0" index="0" allow="pedestrian delivery bicycle" speed="5.56" length="11.73" shape="962.50,3035.66 959.40,3036.96 956.90,3036.78 955.01,3035.14 953.73,3032.03"/>
    </edge>
    <edge id=":11332146269_2" function="internal">
        <lane id=":11332146269_2_0" index="0" allow="pedestrian delivery bicycle" speed="3.65" length="4.67" shape="962.50,3035.66 961.06,3035.59 960.31,3035.10 960.24,3034.21 960.86,3032.91"/>
    </edge>
    <edge id=":11332146269_3" function="internal">
        <lane id=":11332146269_3_0" index="0" allow="pedestrian delivery bicycle" speed="4.79" length="5.39" shape="956.83,3031.25 957.42,3032.67 958.29,3033.43 959.44,3033.51 960.86,3032.91"/>
    </edge>
    <edge id=":11332146269_4" function="internal">
        <lane id=":11332146269_4_0" index="0" allow="pedestrian delivery bicycle" speed="5.56" length="10.52" shape="956.83,3031.25 957.52,3035.07 957.34,3037.80 956.30,3039.42 954.40,3039.96"/>
    </edge>
    <edge id=":11332146269_5" function="internal">
        <lane id=":11332146269_5_0" index="0" allow="pedestrian delivery bicycle" speed="3.65" length="4.67" shape="956.83,3031.25 956.36,3032.61 955.68,3033.19 954.80,3033.00 953.73,3032.03"/>
    </edge>
    <edge id=":11332146269_6" function="internal">
        <lane id=":11332146269_6_0" index="0" allow="pedestrian delivery bicycle" speed="4.76" length="5.19" shape="953.37,3036.75 953.98,3036.46 954.24,3035.58 954.16,3034.10 953.73,3032.03"/>
    </edge>
    <edge id=":11332146269_7" function="internal">
        <lane id=":11332146269_7_0" index="0" allow="pedestrian delivery bicycle" speed="5.56" length="8.66" shape="953.37,3036.75 955.81,3036.47 957.34,3035.65 958.76,3034.42 960.86,3032.91"/>
    </edge>
    <edge id=":11332146269_8" function="internal">
        <lane id=":11332146269_8_0" index="0" allow="pedestrian delivery bicycle" speed="3.71" length="4.92" shape="953.37,3036.75 954.83,3037.16 955.49,3037.84 955.35,3038.77 954.40,3039.96"/>
    </edge>
    <edge id=":11332146270_0" function="internal">
        <lane id=":11332146270_0_0" index="0" allow="pedestrian delivery bicycle" speed="3.65" length="4.67" shape="993.12,3013.68 994.56,3013.75 995.31,3014.23 995.38,3015.12 994.76,3016.42"/>
    </edge>
    <edge id=":11332146279_0" function="internal">
        <lane id=":11332146279_0_0" index="0" allow="pedestrian delivery bicycle" speed="5.34" length="10.99" width="3.70" shape="945.14,3020.20 943.08,3017.01 941.80,3016.22 941.31,3017.83 941.61,3021.83"/>
    </edge>
    <edge id=":11332146279_1" function="internal">
        <lane id=":11332146279_1_0" index="0" allow="pedestrian delivery bicycle" speed="3.70" length="4.88" shape="945.14,3020.20 944.81,3018.73 945.09,3017.84 945.97,3017.53 947.46,3017.80"/>
    </edge>
    <edge id=":11332146279_2" function="internal">
        <lane id=":11332146279_2_0" index="0" allow="pedestrian delivery bicycle" speed="8.33" length="9.61" shape="941.95,3010.23 942.70,3012.80 944.04,3014.23 945.70,3015.54 947.46,3017.80"/>
    </edge>
    <edge id=":11332146279_3" function="internal">
        <lane id=":11332146279_3_0" index="0" disallow="tram rail_urban rail rail_electric rail_fast ship container cable_car subway aircraft wheelchair scooter drone" speed="19.45" length="11.66" width="3.70" shape="938.28,3010.71 938.97,3014.18 939.93,3016.57 940.90,3018.81 941.61,3021.83"/>
    </edge>
    <edge id=":11332146282_0" function="internal">
        <lane id=":11332146282_0_0" index="0" allow="pedestrian delivery bicycle" speed="5.56" length="9.31" shape="842.99,3049.51 834.84,3045.01"/>
    </edge>
    <edge id=":11332146282_1" function="internal">
        <lane id=":11332146282_1_0" index="0" allow="pedestrian delivery bicycle" speed="5.56" length="11.71" shape="842.99,3049.51 840.35,3047.45 839.27,3045.19 839.77,3042.74 841.85,3040.10"/>
    </edge>
    <edge id=":11332146282_2" function="internal">
        <lane id=":11332146282_2_0" index="0" allow="pedestrian delivery bicycle" speed="3.65" length="4.67" shape="842.99,3049.51 842.35,3048.22 842.40,3047.33 843.15,3046.83 844.59,3046.74"/>
    </edge>
    <edge id=":11332146282_3" function="internal">
        <lane id=":11332146282_3_0" index="0" allow="pedestrian delivery bicycle" speed="4.79" length="5.38" shape="844.06,3042.41 843.11,3043.62 842.88,3044.75 843.37,3045.79 844.59,3046.74"/>
    </edge>
    <edge id=":11332146282_4" function="internal">
        <lane id=":11332146282_4_0" index="0" allow="pedestrian delivery bicycle" speed="5.56" length="10.25" shape="844.06,3042.41 841.61,3044.37 839.26,3045.45 837.00,3045.67 834.84,3045.01"/>
    </edge>
    <edge id=":11332146282_5" function="internal">
        <lane id=":11332146282_5_0" index="0" allow="pedestrian delivery bicycle" speed="3.65" length="4.67" shape="844.06,3042.41 842.64,3042.66 841.80,3042.36 841.53,3041.51 841.85,3040.10"/>
    </edge>
    <edge id=":11332146282_6" function="internal">
        <lane id=":11332146282_6_0" index="0" allow="pedestrian delivery bicycle" speed="5.56" length="6.27" shape="836.32,3042.17 837.48,3042.46 838.79,3042.22 840.25,3041.43 841.85,3040.10"/>
    </edge>
    <edge id=":11332146282_7" function="internal">
        <lane id=":11332146282_7_0" index="0" allow="pedestrian delivery bicycle" speed="5.56" length="9.45" shape="836.32,3042.17 844.59,3046.74"/>
    </edge>
    <edge id=":11332146282_8" function="internal">
        <lane id=":11332146282_8_0" index="0" allow="pedestrian delivery bicycle" speed="3.65" length="4.67" shape="836.32,3042.17 837.02,3043.43 837.00,3044.33 836.28,3044.85 834.84,3045.01"/>
    </edge>
    <edge id=":11332146298_0" function="internal">
        <lane id=":11332146298_0_0" index="0" allow="pedestrian delivery bicycle" speed="3.65" length="4.67" shape="941.75,2892.91 940.41,2892.37 939.85,2891.67 940.08,2890.81 941.09,2889.77"/>
    </edge>
    <edge id=":11332146301_0" function="internal">
        <lane id=":11332146301_0_0" index="0" allow="pedestrian delivery bicycle" speed="4.99" length="5.06" shape="965.93,2870.46 965.53,2869.13 964.80,2868.26 963.74,2867.87 962.34,2867.94"/>
    </edge>
    <edge id=":11332146301_1" function="internal">
        <lane id=":11332146301_1_0" index="0" allow="pedestrian delivery bicycle" speed="5.56" length="10.16" shape="965.93,2870.46 965.89,2867.63 966.70,2865.44 968.38,2863.88 970.92,2862.95"/>
    </edge>
    <edge id=":11332146301_2" function="internal">
        <lane id=":11332146301_2_0" index="0" allow="pedestrian delivery bicycle" speed="3.65" length="4.67" shape="965.93,2870.46 966.55,2869.16 967.28,2868.64 968.13,2868.92 969.10,2869.99"/>
    </edge>
    <edge id=":11332146301_3" function="internal">
        <lane id=":11332146301_3_0" index="0" allow="pedestrian delivery bicycle" speed="5.21" length="5.19" shape="971.56,2866.09 970.29,2866.56 969.46,2867.36 969.07,2868.51 969.10,2869.99"/>
    </edge>
    <edge id=":11332146301_4" function="internal">
        <lane id=":11332146301_4_0" index="0" allow="pedestrian delivery bicycle" speed="5.56" length="9.40" shape="971.56,2866.09 962.34,2867.94"/>
    </edge>
    <edge id=":11332146301_5" function="internal">
        <lane id=":11332146301_5_0" index="0" allow="pedestrian delivery bicycle" speed="3.65" length="4.67" shape="971.56,2866.09 970.22,2865.54 969.67,2864.84 969.90,2863.98 970.92,2862.95"/>
    </edge>
    <edge id=":11332146301_6" function="internal">
        <lane id=":11332146301_6_0" index="0" allow="pedestrian delivery bicycle" speed="5.56" length="9.38" shape="961.72,2864.81 970.92,2862.95"/>
    </edge>