<?xml version="1.0" encoding="UTF-8"?>

<!-- generated on 2026-04-16T18:28:25.455982-04:00 by Eclipse SUMO netedit 1.26.0
-->

<additional xmlns:xsi="http://www.w3.org/2001/XMLSchema-instance" xsi:noNamespaceSchemaLocation="http://sumo.dlr.de/xsd/additional_file.xsd">
    <!-- Shapes -->
    <poly id="1013716921" type="unknown" color="51,128,255" fill="0" layer="-1.00" shape="478.664529,662.062285 545.062628,711.801639"/>
    <poly id="1013716923" type="unknown" color="51,128,255" fill="0" layer="-1.00" shape="545.062628,711.801639 567.671083,684.417588 573.836035,677.140278"/>
    <poly id="1082570267" type="unknown" color="51,128,255" fill="1" layer="-1.00" shape="1395.625366,3105.473801 1412.621128,3096.912437 1404.014048,3079.148530 1389.947082,3088.269848 1395.625366,3105.473801"/>
    <poly id="1082570268" type="unknown" color="51,128,255" fill="1" layer="-1.00" shape="1440.451899,3134.154837 1460.985246,3127.322779 1451.076276,3086.790441 1435.524236,3092.711689 1440.451899,3134.154837"/>
    <poly id="1082570269" type="unknown" color="51,128,255" fill="1" layer="-1.00" shape="1462.940616,3107.170002 1485.849757,3104.130690 1480.937652,3063.561305 1453.624506,3068.957451 1462.940616,3107.170002"/>
    <poly id="1082570270" type="unknown" color="51,128,255" fill="1" layer="-1.00" shape="1467.701828,3034.428330 1490.611017,3031.389028 1484.966762,2997.537652 1463.016774,3001.700217 1467.701828,3034.428330"/>
    <poly id="1082570271" type="unknown" color="51,128,255" fill="1" layer="-1.00" shape="1490.077543,3097.394505 1504.763201,3095.559402 1499.587167,3061.130405 1483.434604,3063.260728 1490.077543,3097.394505"/>
    <poly id="1082570272" type="unknown" color="51,128,255" fill="1" layer="-1.00" shape="1500.795907,3011.182410 1515.481659,3009.358379 1503.753800,2958.316207 1489.946549,2958.387988 1500.795907,3011.182410"/>
    <poly id="1082570274" type="unknown" color="51,128,255" fill="1" layer="-1.00" shape="1438.615629,3036.039681 1448.902249,3035.399935 1442.881064,3009.149625 1434.075278,3010.069263 1438.615629,3036.039681"/>
    <poly id="1082570277" type="unknown" color="51,128,255" fill="1" layer="-1.00" shape="1458.354170,2988.041648 1484.485455,2982.950316 1482.285636,2956.093887 1509.005581,2950.402208 1506.871103,2936.111061 1450.215486,2948.661537 1458.354170,2988.041648"/>
    <poly id="1082570321" type="unknown" color="51,128,255" fill="1" layer="-1.00" shape="1520.435782,2840.880315 1516.837905,2821.232051 1473.039982,2813.396047 1462.042472,2843.827518 1520.435782,2840.880315"/>
    <poly id="1082570322" type="unknown" color="51,128,255" fill="1" layer="-1.00" shape="1513.585446,2878.579597 1514.136376,2866.508871 1487.735368,2868.216814 1490.161559,2879.597326 1513.585446,2878.579597"/>
    <poly id="1082570323" type="unknown" color="51,128,255" fill="1" layer="-1.00" shape="1447.864700,2736.816906 1431.582397,2726.669873 1413.619406,2755.788102 1431.595048,2764.930804 1447.864700,2736.816906"/>
    <poly id="1082570324" type="unknown" color="51,128,255" fill="1" layer="-1.00" shape="1472.231953,2750.715936 1463.023104,2745.786231 1450.627560,2770.793879 1459.469552,2774.718910 1472.231953,2750.715936"/>
    <poly id="1082570326" type="unknown" color="51,128,255" fill="1" layer="-1.00" shape="1510.262552,2747.387908 1497.264253,2749.203152 1493.957041,2768.610776 1510.137969,2771.911423 1510.262552,2747.387908"/>
    <poly id="1082570327" type="unknown" color="51,128,255" fill="1" layer="-1.00" shape="1456.401240,2787.377914 1439.408921,2777.665963 1429.915408,2787.537751 1448.461802,2798.967178 1456.401240,2787.377914"/>
    <poly id="1082570328" type="unknown" color="51,128,255" fill="1" layer="-1.00" shape="1428.140191,2827.588849 1411.147879,2817.876913 1401.654386,2827.748712 1420.200831,2839.189184 1428.140191,2827.588849"/>
    <poly id="1082570329" type="unknown" color="51,128,255" fill="1" layer="-1.00" shape="1403.079888,2870.061797 1386.087586,2860.349875 1376.605070,2870.221627 1395.151505,2881.662083 1403.079888,2870.061797"/>
    <poly id="1082570330" type="unknown" color="51,128,255" fill="1" layer="-1.00" shape="1371.283122,2915.202404 1354.279870,2905.490556 1344.797376,2915.362321 1363.343745,2926.791697 1371.283122,2915.202404"/>
    <poly id="1082570331" type="unknown" color="51,128,255" fill="1" layer="-1.00" shape="1364.812828,2941.661494 1347.809585,2931.949651 1338.327100,2941.821418 1356.873460,2953.250790 1364.812828,2941.661494"/>
    <poly id="1082570332" type="unknown" color="51,128,255" fill="1" layer="-1.00" shape="1354.774235,2962.597444 1337.770997,2952.885607 1328.288522,2962.757378 1346.834876,2974.186744 1354.774235,2962.597444"/>
    <poly id="1082570333" type="unknown" color="51,128,255" fill="1" layer="-1.00" shape="1327.713195,2986.973548 1310.720917,2977.261667 1301.227497,2987.133505 1319.773909,2998.573917 1327.713195,2986.973548"/>
    <poly id="1082570334" type="unknown" color="51,128,255" fill="1" layer="-1.00" shape="1319.656495,3020.232546 1302.653270,3010.520728 1293.170821,3020.392513 1311.717220,3031.832919 1319.656495,3020.232546"/>
    <poly id="1082570335" type="unknown" color="51,128,255" fill="1" layer="-1.00" shape="1282.440761,3017.948510 1272.776007,3034.900483 1282.774979,3044.261599 1294.163058,3025.752078 1282.440761,3017.948510"/>
    <poly id="1082570336" type="unknown" color="51,128,255" fill="1" layer="-1.00" shape="1447.747243,2868.081823 1436.968407,2866.799456 1431.329693,2882.491564 1446.895256,2885.474598 1447.747243,2868.081823"/>
    <poly id="1082570337" type="unknown" color="51,128,255" fill="1" layer="-1.00" shape="1468.941384,2929.295402 1429.039551,2924.669110 1423.452455,2950.282931 1466.287174,2939.397097 1468.941384,2929.295402"/>
    <poly id="1082570338" type="unknown" color="51,128,255" fill="1" layer="-1.00" shape="1433.560810,2909.038118 1420.102786,2902.515579 1415.057381,2918.503261 1431.804859,2921.181484 1433.560810,2909.038118"/>
    <poly id="1082570339" type="unknown" color="51,128,255" fill="1" layer="-1.00" shape="1389.169893,2797.715872 1437.505525,2822.573630 1460.234223,2784.791767 1412.481161,2758.172198 1389.169893,2797.715872"/>
    <poly id="1082570340" type="unknown" color="51,128,255" fill="1" layer="-1.00" shape="1389.169893,2797.715872 1358.836854,2841.963964 1368.021712,2846.495559 1409.814932,2867.106587 1437.505525,2822.573630 1389.169893,2797.715872"/>
    <poly id="1082570341" type="unknown" color="51,128,255" fill="1" layer="-1.00" shape="1368.021712,2846.495559 1337.016952,2885.891269 1355.326929,2902.432192 1384.208514,2918.342941 1409.814932,2867.106587 1368.021712,2846.495559"/>
    <poly id="1082570343" type="unknown" color="51,128,255" fill="1" layer="-1.00" shape="1180.818761,3145.428199 1190.170927,3133.698752 1167.748261,3118.628372 1180.578463,3099.292752 1171.149040,3094.087746 1151.914406,3125.137471 1180.818761,3145.428199"/>
    <poly id="1082570344" type="unknown" color="51,128,255" fill="1" layer="-1.00" shape="1194.835485,3126.672653 1206.626934,3133.026799 1222.326991,3100.823018 1191.670590,3082.886375 1185.840811,3093.424975 1205.892283,3105.587533 1194.835485,3126.672653"/>
    <poly id="1082570345" type="unknown" color="51,128,255" fill="1" layer="-1.00" shape="1068.622924,3218.287365 1128.150833,3246.017562 1199.061781,3205.927003 1220.548989,3155.010534 1247.645347,3107.991646 1232.815244,3082.085867 1169.827421,3065.467974 1068.622924,3218.287365"/>
    <poly id="1082570346" type="unknown" color="51,128,255" fill="1" layer="-1.00" shape="964.167115,3140.429351 1001.419143,3124.461679 999.613771,3116.584375 1016.628091,3109.493862 999.821859,3042.992373 953.535113,3072.734236 964.167115,3140.429351"/>
    <poly id="1082570348" type="unknown" color="red" fill="1" layer="-1.00" shape="853.144188,3043.182154 896.754628,3063.395965 909.346662,3055.144909 920.150440,3040.200027 865.966598,3022.375282 853.144188,3043.182154"/>
    <poly id="1082570349" type="unknown" color="51,128,255" fill="1" layer="-1.00" shape="826.727769,3050.321805 903.660496,3091.101729 914.195450,3083.447654 907.682962,3074.433464 849.053122,3046.698876 859.530260,3027.961643 826.727769,3050.321805"/>
    <poly id="1082570350" type="unknown" color="51,128,255" fill="1" layer="-1.00" shape="873.903638,3020.873782 913.363365,3035.268894 912.446853,3029.731954 892.698701,3019.028051 877.987035,3015.885948 873.903638,3020.873782"/>
    <poly id="1083884988" type="unknown" color="red" fill="1" layer="-1.00" shape="977.188188,3019.007772 996.520151,3006.639989 983.784606,2989.472857 965.917972,3001.246756 977.188188,3019.007772"/>
    <poly id="1083884989" type="unknown" color="red" fill="1" layer="-1.00" shape="948.046792,3012.146846 953.790771,3041.905016 997.177048,3021.237497 994.496578,3013.663410 970.742376,3024.881753 962.688375,3001.849845 948.046792,3012.146846"/>
    <poly id="1083884990" type="unknown" color="131,139,139" fill="1" layer="-1.00" shape="879.805482,3003.155945 894.710963,2986.729567 919.253339,3013.170847 879.805482,3003.155945"/>
    <poly id="1083884991" type="unknown" color="51,128,255" fill="1" layer="-1.00" shape="946.810813,2943.241297 955.009946,2937.358171 953.701604,2913.417247 943.724473,2916.677049 946.810813,2943.241297"/>
    <poly id="1085618585" type="unknown" color="51,128,255" fill="0" layer="-1.00" shape="-174.482282,2318.839802 -114.272953,2365.247399 -28.721844,2425.249445 35.579495,2355.403030 48.047109,2153.844043 67.437438,2152.570021 77.980515,2144.340485 84.973549,2132.036835 88.375069,2109.829952 95.111296,2048.459482 97.705183,2037.351368 103.542289,2030.318981 111.157434,2025.898831 122.617199,2023.206258 133.785408,2023.435410 159.400470,2032.648223 274.819804,2068.546964 389.953399,2108.540228 656.675237,2187.751226 681.414817,2197.256536"/>
    <poly id="1085716881" type="unknown" color="156,102,31" fill="1" layer="-1.00" shape="1431.681932,1320.171794 1445.621961,1288.563701 1455.500991,1266.312422 1458.926597,1246.439643 1457.690333,1234.179104 1448.208945,1219.041197 1472.216113,1201.395497 1493.887274,1185.520685 1502.047490,1172.038881 1496.675620,1156.879632 1490.756291,1148.149826 1515.987658,1140.430838 1535.946011,1134.486912 1562.436627,1141.351243 1578.343086,1146.533882 1586.017616,1153.495851 1600.701108,1151.085751 1609.786439,1201.854093 1582.767695,1207.248364 1581.710294,1229.453821 1581.816348,1249.894500 1579.539033,1265.093441 1572.556267,1277.396623 1531.984300,1277.020919 1515.014449,1292.871312 1506.863335,1308.100752 1501.702535,1331.488956 1503.548753,1347.252752 1516.786136,1406.173820 1511.593208,1425.480580 1480.856333,1506.232626 1471.004665,1533.737875 1469.917049,1550.103155 1470.655526,1580.462531 1479.777461,1638.243526 1489.334574,1667.981920 1497.071567,1684.876560 1501.293247,1706.468375 1491.747993,1792.961839 1473.715101,1829.845316 1462.044613,1846.840758 1454.497570,1864.401033 1451.056973,1881.364791 1443.685907,1932.793804 1451.478705,1962.541351 1463.370604,1988.174927 1487.275771,2062.813941 1499.854657,2108.896261 1506.474788,2138.638839 1505.447902,2166.684521 1502.001244,2182.475813 1499.762345,2202.928692 1498.292332,2259.581153 1491.945294,2282.400372 1484.396489,2301.708350 1473.973434,2330.964299 1457.893429,2404.052343 1446.788854,2418.135769 1433.336106,2431.634097 1418.130042,2445.141547 1413.535200,2465.606693 1412.454985,2485.478382 1398.057492,2542.784346 1385.263398,2569.132498 1374.233605,2595.471483 1369.638822,2615.936644 1370.948037,2642.211463 1391.157612,2684.747634 1418.783295,2684.603976 1416.594304,2716.737342 1409.666605,2739.548562 1399.806348,2765.295216 1329.226665,2871.375139 1315.197667,2887.807793 1227.472210,2861.982744 1178.039877,2851.720823 1102.600222,2813.576151 1062.826928,2739.019982 1022.349177,2642.864767 1010.268368,2581.017568 1002.919076,2524.986085 1002.657358,2474.758043 1009.495401,2432.667318 991.720471,2405.316823 991.519624,2366.769207 1101.089966,2298.448002 1178.032357,2284.032790 1168.760975,2197.636993 1107.008076,2193.290570 1076.884761,2052.681268 1082.503093,2003.595142 1099.909038,1957.943032 1112.700242,1931.019615 1158.593015,1938.955081 1184.467137,1941.154386 1210.297548,1932.845707 1234.853266,1907.011529 1247.638492,1878.915716 1252.187818,1849.690244 1246.131832,1814.679565 1229.508097,1783.219213 1190.497447,1743.712073 1166.925727,1733.315402 1119.508454,1771.524492 1107.670985,1756.409992 1112.285873,1737.692381 1130.260702,1689.703427 1157.192140,1669.708281 1174.762504,1655.602218 1189.941499,1636.829677 1229.669265,1588.727671 1244.249341,1566.462909 1247.086001,1547.168331 1240.535437,1530.853802 1227.528385,1516.320527 1201.547611,1493.669364 1238.846623,1431.565377 1269.582099,1462.366146 1324.525815,1402.504496 1351.514055,1391.269797 1388.491652,1381.144666 1408.398264,1365.267881 1417.168433,1355.300363 1431.681932,1320.171794"/>
    <poly id="1085838722" type="unknown" color="51,128,255" fill="0" layer="-1.00" shape="1412.691802,3575.954559 1406.964191,3576.636983 1121.349194,3534.764226 942.882569,3608.257124 727.138526,3692.608884 509.186646,3775.801175 444.637959,3741.395168 525.186071,3407.054048 675.474095,3143.738971 899.642012,2898.434533 870.224977,2611.823298 842.452888,2359.073230"/>
    <poly id="1085845328" type="unknown" color="51,128,255" fill="0" layer="-1.00" shape="842.776785,2477.925395 915.310173,2464.992617 994.083092,2465.455914 1209.984281,2550.775628"/>
    <poly id="1085845329" type="unknown" color="51,128,255" fill="0" layer="-1.00" shape="1347.433864,3093.512875 1377.302465,3073.790032 1389.621867,3067.885577 1407.820916,3063.123038 1522.359517,3044.420084 1699.445382,3016.632096 1864.204719,2991.253981 1876.546930,2989.729856"/>
    <poly id="1085845340" type="unknown" color="51,128,255" fill="0" layer="-1.00" shape="1347.433864,3093.512875 1328.717585,3112.591458 1310.895033,3132.837901 1288.140912,3165.653540 1270.644382,3193.785021 1259.276513,3211.951556 1249.081473,3228.065650 1238.860278,3241.259701 1219.272046,3261.216750 1194.981034,3282.957057 1163.099731,3311.738736 1140.288065,3333.460323 1087.893162,3374.914633 1010.969511,3449.194189 1000.452891,3460.343533 991.100884,3472.073057 981.184840,3487.013308 971.572344,3503.423135 965.196966,3520.678863 962.383962,3531.810161"/>
    <poly id="1085845343" type="unknown" color="51,128,255" fill="0" layer="-1.00" shape="598.493558,3184.039347 615.880614,3156.018632 650.373950,3119.634696 688.390985,3084.393845 742.866003,3046.733184 816.043497,2987.361205 831.810320,2967.999051 847.569883,2945.141569 858.028768,2922.897998 864.378291,2900.664808 874.189379,2865.571374 875.770880,2830.520868 873.206540,2788.490173 855.348278,2633.802290 848.450361,2550.900503 842.776785,2477.925395"/>
    <poly id="1085936355" type="unknown" color="156,102,31" fill="1" layer="-1.00" shape="1386.073339,2667.983036 1384.699534,2658.787187 1386.559960,2649.873173 1386.386383,2643.889918 1382.689546,2638.942624 1379.454564,2638.516996 1373.579884,2640.450091 1371.246211,2642.652364 1364.982562,2654.078071 1359.567759,2658.044054 1351.125044,2674.005168 1350.000326,2683.202952 1347.954621,2685.989978 1342.382669,2689.237799 1339.012081,2690.129174 1333.265738,2687.238886 1330.163376,2684.921092 1328.680530,2682.152422 1325.582714,2680.708447 1319.569696,2681.325978 1316.910957,2680.023516 1312.327990,2675.368432 1305.862634,2675.402070 1299.863312,2678.652122 1296.363595,2684.212040 1297.570369,2690.787232 1307.901120,2698.609122 1309.972661,2700.788480 1308.365289,2703.573228 1305.732702,2705.190813 1302.783444,2704.918565 1298.058827,2700.419078 1294.815503,2698.389614 1291.579028,2697.676409 1279.859588,2705.181645 1276.654253,2710.452440 1275.809541,2716.595856 1270.534968,2720.129736 1265.858184,2724.821942 1263.538663,2731.846876 1262.692400,2737.691645 1266.280180,2749.055048 1266.891360,2754.892232 1261.914162,2758.712160 1250.720401,2753.516304 1244.561579,2755.594700 1236.677983,2765.270126 1230.802580,2767.059457 1225.826884,2771.166977 1223.213307,2776.434700 1227.938732,2781.089031 1233.531965,2781.933758 1239.117290,2783.364775 1244.132481,2786.845102 1244.754623,2792.682229 1239.475458,2795.331236 1234.832199,2806.460951 1228.682485,2810.286989 1220.824457,2826.975153 1222.323258,2832.807717 1227.336891,2835.989393 1251.414500,2830.023691 1263.175686,2830.548723 1268.764053,2832.565977 1273.206049,2837.509381 1278.501537,2840.103348 1284.973275,2839.195824 1290.837766,2837.417619 1301.967662,2830.346839 1305.473404,2825.948323 1306.034756,2820.105038 1303.070622,2814.866346 1295.071196,2804.388681 1294.751345,2797.676139 1286.384666,2773.484378 1286.351223,2767.057938 1288.936225,2754.191260 1293.579567,2743.072618 1295.578932,2731.381486 1299.081636,2726.396739 1303.213758,2730.755511 1304.418228,2736.888263 1301.246333,2748.585495 1300.400065,2754.430262 1298.371808,2760.568774 1298.699623,2766.706087 1301.367889,2771.946318 1301.119409,2778.949411 1299.702386,2790.936168 1303.551085,2795.584008 1308.566267,2799.064342 1315.031601,2799.030701 1321.202929,2797.250906 1326.779096,2796.923239 1332.650007,2794.271167 1337.035405,2790.443266 1345.211840,2780.180094 1354.573005,2772.255755 1375.008213,2744.407738 1388.472883,2733.232171 1395.758741,2722.398460 1399.522413,2710.698165 1399.429746,2692.878908 1400.835911,2680.903280 1396.115045,2677.122747 1390.219893,2675.118127 1386.073339,2667.983036"/>
    <poly id="1085936356" type="unknown" color="156,102,31" fill="1" layer="-1.00" shape="1307.384576,2599.325631 1307.072015,2596.119482 1306.321066,2592.904552 1305.134146,2590.145403 1303.202007,2587.379070 1300.844797,2585.057401 1297.604514,2583.614168 1294.217606,2583.476931 1287.897740,2584.096061 1285.122686,2585.714388 1282.186309,2587.919802 1277.396744,2598.320219 1277.117561,2601.529447 1277.883650,2607.653419 1277.025234,2611.164316 1276.155112,2614.531478 1275.874434,2617.453120 1275.155426,2620.377044 1273.702964,2623.448581 1277.317393,2639.933227 1279.238517,2642.688554 1280.874035,2645.312632 1284.725052,2650.402912 1286.053739,2653.028587 1286.958795,2656.375450 1288.879974,2659.141839 1291.245895,2661.032071 1294.187997,2662.034402 1297.127855,2662.605354 1299.612635,2659.959837 1300.747184,2652.653480 1299.260536,2649.154784 1297.339415,2646.399456 1293.934638,2640.720604 1292.296070,2637.510293 1290.483219,2628.183993 1291.497295,2625.103676 1293.683962,2622.028320 1295.875175,2619.826783 1297.626562,2617.339941 1299.974242,2615.723838 1303.761874,2610.737611 1307.384576,2599.325631"/>
    <poly id="1085936357" type="unknown" color="156,102,31" fill="1" layer="-1.00" shape="1194.326809,2563.854155 1191.960129,2561.820135 1189.169127,2560.374572 1185.338586,2559.222015 1181.961941,2558.951999 1178.569730,2557.797161 1176.496676,2555.330222 1173.988284,2553.440737 1167.667219,2551.725959 1164.431475,2551.156556 1161.202584,2551.903413 1154.452729,2554.128694 1151.965645,2556.331781 1151.389102,2559.254966 1153.169337,2562.309678 1155.539073,2564.929929 1158.486544,2566.960924 1160.557296,2568.985422 1161.744286,2571.755629 1162.340277,2574.672709 1163.679934,2577.298324 1166.189073,2579.331601 1171.356159,2582.512477 1174.438485,2583.082679 1177.082035,2581.465028 1179.274743,2579.551069 1181.167028,2576.764831 1181.884533,2573.553319 1183.635110,2570.911616 1189.211678,2568.548651 1191.701815,2566.931800 1194.326809,2563.854155"/>
    <poly id="1085936358" type="unknown" color="156,102,31" fill="1" layer="-1.00" shape="1211.491954,2615.155602 1210.580345,2608.446138 1210.687106,2601.587577 1210.823018,2598.224235 1209.762542,2592.389389 1207.832698,2590.065500 1204.316593,2590.371396 1201.971218,2592.429945 1200.220641,2595.071647 1198.473058,2598.288521 1196.425055,2600.633116 1193.498893,2602.694689 1190.869354,2604.898515 1187.647320,2606.961629 1182.669356,2610.637774 1180.917976,2613.124623 1181.964809,2616.338012 1184.612544,2617.629461 1187.851333,2618.785098 1190.647991,2619.212990 1193.580197,2618.312822 1195.626703,2615.680640 1198.561961,2615.366705 1201.504128,2616.380090 1206.967078,2619.559430 1209.907690,2620.274169 1212.398572,2618.801111 1211.491954,2615.155602"/>
    <poly id="1085936359" type="unknown" color="156,102,31" fill="1" layer="-1.00" shape="1208.773302,2657.081017 1214.944290,2657.336488 1220.542090,2659.055035 1226.711580,2659.022922 1235.490419,2650.802929 1238.102514,2645.247624 1235.727053,2639.419622 1230.124645,2636.816192 1223.366457,2637.437617 1210.746798,2640.423488 1203.981010,2639.584865 1193.076972,2633.215013 1187.477611,2631.197822 1180.717867,2631.520608 1168.685098,2635.675937 1149.607674,2640.155546 1144.331542,2643.390797 1140.246563,2648.091001 1142.618987,2653.332765 1149.378728,2653.009972 1154.660906,2650.936126 1160.231051,2649.447030 1165.818203,2649.119284 1171.699786,2648.513473 1177.280529,2649.059605 1182.002923,2653.127700 1187.312455,2656.307835 1192.914865,2658.911258 1198.498714,2660.054686 1208.773302,2657.081017"/>
    <poly id="1085936360" type="unknown" color="156,102,31" fill="1" layer="-1.00" shape="1087.217908,2597.551544 1085.439166,2594.784421 1083.071731,2592.606614 1076.877162,2587.827213 1073.931991,2586.238665 1070.989816,2585.225289 1067.760929,2585.972155 1065.573528,2588.903735 1064.560218,2592.127853 1065.451284,2594.888538 1066.934155,2597.657202 1068.712149,2600.280531 1071.225096,2603.043828 1079.681169,2617.014455 1084.253911,2621.802304 1085.452613,2624.716245 1085.173506,2627.936539 1083.129313,2631.011168 1080.344868,2632.928217 1076.819305,2633.521770 1073.880246,2633.105689 1070.944931,2633.408574 1067.866112,2635.614752 1065.091070,2637.233097 1062.290664,2636.086249 1051.227069,2628.544769 1049.154757,2626.221629 1046.799028,2624.187561 1043.996315,2622.598273 1036.911071,2617.237269 1034.400427,2614.916414 1032.775846,2612.292287 1031.575641,2609.090761 1029.466039,2599.611150 1028.573356,2596.540758 1026.652958,2593.929233 1023.699074,2592.772126 1020.482348,2595.852869 1020.213455,2598.929314 1020.371878,2601.992471 1020.981087,2605.340873 1022.025631,2608.111819 1022.326510,2611.174234 1021.311649,2614.099708 1019.418628,2616.742163 1018.107894,2619.669179 1018.276525,2622.588486 1020.055272,2625.355606 1022.705319,2627.089484 1028.883177,2628.661184 1032.273083,2629.373567 1035.074297,2630.675268 1037.580388,2632.122303 1040.088783,2634.011779 1045.386626,2637.048159 1047.893465,2638.638988 1050.403358,2640.816051 1051.897935,2643.728449 1052.933016,2646.787039 1053.399822,2650.147244 1052.683887,2653.657409 1050.341521,2656.291142 1047.262705,2658.497322 1044.191044,2659.973419 1040.807999,2660.577294 1037.566958,2658.990291 1034.759695,2656.527185 1031.966386,2654.639195 1029.158315,2652.021235 1027.227710,2649.553561 1025.459923,2646.786384 1023.965343,2643.873986 1022.928762,2640.527810 1022.179343,2637.611530 1019.809600,2634.991286 1016.419694,2634.278904 1013.353334,2636.772616 1009.714307,2642.930606 1007.963688,2645.561259 1004.878072,2646.462243 999.460242,2649.842054 996.368516,2649.570573 993.423345,2647.982031 988.263343,2644.060035 985.756501,2642.469210 982.806424,2642.042133 980.031443,2643.671547 980.331577,2646.590169 982.112574,2649.788667 984.327347,2652.111061 987.721807,2653.697260 990.667785,2655.440655 993.472804,2657.472378 995.981893,2659.494583 999.082784,2661.524765 1007.920598,2666.732831 1013.820395,2669.622272 1016.328040,2671.367953 1017.952563,2673.981018 1015.939619,2683.050720 1013.752229,2685.982305 1012.003169,2688.911605 1011.141727,2691.836280 1011.595274,2694.754103 1012.344694,2697.670383 1013.984786,2701.168271 1016.635578,2703.045942 1019.287926,2705.222259 1021.798623,2707.554174 1024.163002,2709.145743 1027.542692,2710.001975 1030.783275,2709.398839 1033.560615,2708.222930 1035.905224,2706.020574 1037.798240,2703.378118 1039.252927,2700.737947 1039.827958,2697.527171 1040.688653,2694.458704 1041.417042,2691.236068 1042.278486,2688.311394 1043.888146,2685.969071 1049.151750,2682.435212 1052.828417,2681.398416 1056.061099,2681.381574 1062.243498,2683.827097 1065.184109,2684.541823 1068.274333,2684.525724 1072.954156,2680.419722 1074.266390,2677.780295 1074.832714,2675.000957 1076.002548,2672.373333 1078.934748,2671.473154 1081.734459,2672.487271 1084.679623,2674.075819 1086.597765,2676.255966 1088.963698,2678.146186 1091.902004,2678.418475 1094.534586,2676.800872 1097.021658,2674.597779 1099.068096,2671.954529 1101.703732,2670.923161 1104.653746,2671.339186 1107.440193,2671.910922 1110.688385,2672.767848 1113.198270,2674.944914 1121.307215,2681.185501 1124.864686,2686.719749 1127.534482,2692.247558 1127.862326,2698.384874 1132.011481,2703.904979 1136.439502,2708.262194 1141.454715,2711.742510 1146.474477,2716.096645 1150.623685,2721.627812 1153.624368,2733.879171 1154.828807,2740.000861 1155.155092,2745.839529 1156.943672,2750.498085 1158.750568,2758.674040 1163.764966,2761.999503 1164.900229,2754.836929 1167.228887,2749.570684 1171.608229,2744.581356 1176.582370,2740.175181 1182.449928,2738.983193 1188.345145,2740.998840 1198.933473,2743.565241 1204.531319,2745.294845 1210.116957,2744.679517 1215.379066,2740.858098 1219.476554,2736.456493 1218.273623,2730.622388 1218.824007,2724.779157 1222.029275,2719.497294 1224.653816,2714.229515 1225.498577,2708.097158 1229.877932,2703.107839 1235.445326,2698.986180 1241.610261,2698.080249 1247.188307,2696.004877 1246.566166,2690.167750 1242.726911,2685.232270 1241.229608,2679.687292 1240.607467,2673.850164 1237.641759,2668.312828 1232.625056,2664.544914 1225.272077,2664.583187 1219.111685,2666.362938 1216.789116,2672.801643 1213.879658,2678.070905 1215.971762,2684.199036 1218.060813,2689.740933 1212.494916,2694.150181 1205.732133,2693.886731 1200.131285,2691.581954 1195.449955,2695.400352 1188.986153,2695.732658 1182.807512,2694.006080 1176.910790,2691.702847 1169.869195,2692.613353 1163.117123,2694.407257 1156.944584,2693.853149 1151.040257,2690.089868 1146.025042,2686.609551 1140.430538,2683.419845 1135.117951,2679.653484 1130.105787,2676.759402 1125.089070,2672.991501 1120.070797,2668.924954 1115.642771,2664.567739 1109.419747,2656.425846 1104.990220,2651.781047 1100.267814,2647.712960 1097.006209,2642.177173 1094.029575,2636.650964 1092.826621,2630.816860 1093.683821,2624.972026 1093.653401,2619.131815 1091.833583,2608.478195 1087.217908,2597.551544"/>
    <poly id="1085936361" type="unknown" color="156,102,31" fill="1" layer="-1.00" shape="1192.805650,2440.041888 1192.913911,2433.470913 1194.053001,2427.038369 1194.191219,2424.117467 1190.953968,2423.260474 1187.723510,2423.708679 1185.380426,2426.209667 1184.069670,2429.136673 1182.916130,2432.792906 1179.271695,2437.922197 1173.702705,2441.745211 1171.214114,2443.660710 1168.723968,2445.277561 1166.235320,2447.181998 1168.166728,2449.804534 1171.403229,2450.517731 1178.747599,2450.921952 1181.688974,2451.780484 1184.786816,2453.224450 1188.020265,2453.351416 1190.810833,2452.606845 1192.122338,2449.823633 1192.107138,2446.903529 1192.805650,2440.041888"/>
    <poly id="1085936362" type="unknown" color="156,102,31" fill="1" layer="-1.00" shape="1144.928736,2476.063367 1149.323624,2471.947804 1149.875563,2466.403218 1145.153143,2462.335123 1139.274941,2461.491885 1133.403980,2464.143982 1128.130930,2467.976526 1129.048963,2473.812114 1133.768274,2477.282912 1144.928736,2476.063367"/>
    <poly id="1085936363" type="unknown" color="156,102,31" fill="1" layer="-1.00" shape="1246.320087,2472.316782 1247.459242,2465.895303 1247.428852,2460.055096 1249.419083,2446.605265 1251.694290,2433.165013 1253.426636,2427.016980 1255.424528,2415.038263 1253.629852,2409.207237 1247.457269,2408.653105 1243.957583,2414.224086 1240.495828,2427.084264 1239.057805,2432.932112 1235.853998,2438.501554 1233.244933,2444.643090 1232.096433,2451.374335 1232.128321,2457.502128 1232.750462,2463.339255 1230.173348,2475.619645 1229.907867,2481.461392 1230.814923,2487.297036 1234.665213,2492.243521 1240.259986,2493.375843 1245.235727,2489.268331 1247.849336,2484.000615 1246.320087,2472.316782"/>
    <poly id="1085936364" type="unknown" color="156,102,31" fill="1" layer="-1.00" shape="1137.879343,2420.760377 1130.966503,2419.048683 1127.864853,2416.874694 1122.245256,2408.873448 1122.524371,2405.653156 1124.716340,2403.595402 1127.650925,2403.148732 1135.473449,2409.092168 1139.010379,2410.677642 1149.445005,2411.065769 1152.235576,2410.321196 1154.882578,2411.468852 1154.165127,2414.691426 1152.413736,2417.178275 1149.927390,2419.525153 1147.141426,2421.154608 1143.911716,2421.746610 1137.879343,2420.760377"/>
    <poly id="1085936365" type="unknown" color="156,102,31" fill="1" layer="-1.00" shape="1106.061732,2350.399177 1104.259426,2343.108102 1102.339773,2340.640365 1096.011451,2339.644616 1093.975200,2342.144013 1092.961819,2345.357068 1093.885659,2354.411465 1095.073408,2357.325464 1097.296842,2359.205369 1100.381492,2360.218008 1103.326233,2359.616425 1105.065859,2356.974777 1106.061732,2350.399177"/>
    <poly id="1085936366" type="unknown" color="156,102,31" fill="1" layer="-1.00" shape="1284.190369,2294.862505 1280.749893,2282.325833 1279.996696,2278.679524 1278.340683,2272.117730 1276.559701,2268.919219 1274.204716,2267.028927 1272.155937,2269.229721 1270.559500,2272.014410 1270.579236,2275.808331 1271.034257,2279.013740 1274.477039,2291.992851 1275.664024,2294.763061 1275.853921,2301.774933 1275.449765,2308.347444 1274.874701,2311.558211 1273.294954,2317.550589 1267.751024,2326.196178 1267.036552,2329.993919 1269.249824,2332.028744 1272.038159,2330.852803 1274.374095,2329.081905 1279.064143,2324.821031 1281.101961,2322.620294 1282.557490,2320.134993 1284.724758,2311.219378 1284.190369,2294.862505"/>