<additional>
    <edgeData id="reporte_densidad_final" file="../02_Resultados_Base/reporte_densidad.xml" freq="100"/>
</additional>