<?xml version="1.0" encoding="UTF-8"?>

<!-- generated on 2026-04-14T12:47:38.216846-04:00 by Eclipse SUMO netedit 1.26.0
-->

<additional xmlns:xsi="http://www.w3.org/2001/XMLSchema-instance" xsi:noNamespaceSchemaLocation="http://sumo.dlr.de/xsd/additional_file.xsd">
    <!-- StoppingPlaces -->
    <busStop id="bs_0" name="Parada Puerto Guaica" lane="172344969#4_0" startPos="5.81" endPos="15.81"/>
    <busStop id="bs_1" lane="ejercito4_0" startPos="4.17" endPos="24.17"/>
</additional>
